
**** 12/04/24 21:00:04 ******* PSpice 17.4.0 (Nov 2018) ******* ID# 0 ********

 ** Profile: "SCHEMATIC1-BIAS"  [ d:\study\ee\hk241\lab4\altium\assignment\psp\draft-pspicefiles\schematic1\bias.sim ] 


 ****     CIRCUIT DESCRIPTION


******************************************************************************




** Creating circuit file "BIAS.cir" 
** WARNING: THIS AUTOMATICALLY GENERATED FILE MAY BE OVERWRITTEN BY SUBSEQUENT SIMULATIONS

*Libraries: 
* Profile Libraries :
* Local Libraries :
* From [PSPICE NETLIST] section of C:\cds_spb_home\cdssetup\OrCAD_PSpiceTIPSpice_Install\17.4.0\PSpice.ini file:
.lib "nom_pspti.lib" 
.lib "nom.lib" 

*Analysis directives: 
.OPTIONS ADVCONV
.OPTIONS FILEMODELSEARCH
.PROBE64 V(alias(*)) I(alias(*)) W(alias(*)) D(alias(*)) NOISE(alias(*)) 
.INC "..\SCHEMATIC1.net" 



**** INCLUDING SCHEMATIC1.net ****
* source DRAFT
R_R1         N00205 N00209  1k TC=0,0 
X_D2         0 N00209 Zener_parameterized PARAMS: VZT=5 RSF=100m
V_V1         N00205 0 3Vdc
C_C1         0 N00209  0.1 uF  TC=0,0 
---------------------------$
ERROR(ORPSIM-16015): Unknown parameter.

**** RESUMING BIAS.cir ****
.END
